&HEAD  CHID='fds_trails', Title='title' /

&TIME T_END=240 /

&MISC TMPA=32., LEVEL_SET_MODE=4/
&DUMP WRITE_XYZ = .TRUE., DT_PL3D = 0.5,
	PLOT3D_QUANTITY(1:5)='DENSITY','U-VELOCITY','V-VELOCITY','W-VELOCITY','HRRPUV'/

&VENT MB='XMIN', SURF_ID='OPEN' /
&VENT MB='XMAX', SURF_ID='OPEN' /
&VENT MB='YMIN', SURF_ID='OPEN' /
&VENT MB='YMAX', SURF_ID='OPEN' /
&VENT MB='ZMAX', SURF_ID='OPEN' /

&MESH IJK=96,96,50, XB=0,192,0,192,0,100 /


&SPEC ID='WATER VAPOR' /
&SURF ID                      = 'Ground Vegetation'
      DEFAULT                 = .TRUE.
      MINIMUM_BURNOUT_TIME    = 30.
      MATL_ID(1,1)            = 'Dry Regular Excelsior'
      MATL_ID(2,1)            = 'Soil'
      MOISTURE_FRACTION(1)    = 0.05
      SURFACE_VOLUME_RATIO(1) = 5710.
      PACKING_RATIO(1)        = 0.024
      THICKNESS(1:2)          = 0.06,0.1 /
&SURF ID                   = 'Generic Foliage'
      MINIMUM_BURNOUT_TIME = 30.
      MATL_ID              = 'Dry Regular Excelsior'
      MOISTURE_FRACTION    = 1.0
      SURFACE_VOLUME_RATIO = 4000.
      LENGTH               = 0.05
      GEOMETRY             = 'CYLINDRICAL' /
&MATL ID                 = 'Dry Regular Excelsior'
      DENSITY            = 510.
      CONDUCTIVITY       = 0.11
      SPECIFIC_HEAT_RAMP = 'cp_dry_veg'
      A                  = 36300.
      E                  = 60300.
      MATL_ID            = 'Regular Excelsior Char'
      NU_MATL            = 0.27
      SPEC_ID            = 'CELLULOSE'
      NU_SPEC            = 0.73
      HEAT_OF_REACTION   = 609. /
&MATL ID                 = 'Regular Excelsior Char'
      DENSITY            = 300.
      CONDUCTIVITY       = 0.052
      SPECIFIC_HEAT_RAMP = 'cp_char'
      N_S                = 0.
      NU_O2_CHAR         = 1.65
      BETA_CHAR          = 0.2
      A                  = 430.
      E                  = 74800.
      MATL_ID            = 'Regular Excelsior Ash'
      NU_MATL            = 0.02
      SPEC_ID            = 'PRODUCTS','AIR'
      NU_SPEC            = 8.18,-7.2
      HEAT_OF_REACTION   = -12000. /
&MATL ID            = 'Regular Excelsior Ash'
      DENSITY       = 67.
      CONDUCTIVITY  = 0.1
      SPECIFIC_HEAT = 2.0 /
&RAMP ID='cp_dry_veg', T= 0.,    F=1.16 /
&RAMP ID='cp_dry_veg', T= 1000., F=5.027 /
&RAMP ID='cp_char', T=   27, F=0.715 /
&RAMP ID='cp_char', T= 1724, F=2.04 /
&MATL ID='Soil'
      CONDUCTIVITY = 0.25
      SPECIFIC_HEAT = 2.
      DENSITY = 1300. /
&PART ID             = 'Generic Foliage'
      DRAG_COEFFICIENT = 2.8
      COLOR          = 'FOREST GREEN'
      SURF_ID        = 'Generic Foliage'
      QUANTITIES     = 'PARTICLE TEMPERATURE','PARTICLE MASS'
      STATIC         = .TRUE. /


!Wind
&WIND SPEED=2.6, DIRECTION=145., L=-500., Z_0=0.03 /
! Fire origin
&REAC FUEL='CELLULOSE', C=8, H=10, O=5, SOOT_YIELD=0.001, HEAT_OF_COMBUSTION=15600. /
&SURF ID='LINEFIRE', VEG_LSET_IGNITE_TIME=0. /
&SURF ID='LINE',
      VEG_LSET_ROS_00           = 1
      HRRPUA                    = 2000.
      RAMP_Q                    = 'fire' /

&RAMP ID='fire', T= 0., F=0. /
&RAMP ID='fire', T= 1., F=1. /
&RAMP ID='fire', T= 9., F=1. /
&RAMP ID='fire', T= 10., F=0. /

&VENT XB= 147,	150,	3,	6,	16,	16,SURF_ID='LINEFIRE' /
&VENT XB= 147,	147,	3,	6,	16,	17,SURF_ID='LINEFIRE' /
&VENT XB= 150,	153,	3,	6,	15,	15,SURF_ID='LINEFIRE' /
&VENT XB= 150,	153,	3,	3,	15,	16,SURF_ID='LINEFIRE' /
&VENT XB= 150,	150,	3,	6,	15,	16,SURF_ID='LINEFIRE' /
&VENT XB= 150,	153,	6,	9,	15,	15,SURF_ID='LINEFIRE' /
&VENT XB= 150,	150,	6,	9,	15,	16,SURF_ID='LINEFIRE' /
&VENT XB= 153,	156,	6,	9,	15,	15,SURF_ID='LINEFIRE' /
&VENT XB= 156,	159,	6,	9,	14,	14,SURF_ID='LINEFIRE' /
&VENT XB= 156,	156,	6,	9,	14,	15,SURF_ID='LINEFIRE' /
&VENT XB= 159,	162,	6,	9,	14,	14,SURF_ID='LINEFIRE' /
&VENT XB= 159,	162,	9,	12,	13,	13,SURF_ID='LINEFIRE' /
&VENT XB= 159,	162,	9,	9,	13,	14,SURF_ID='LINEFIRE' /
&VENT XB= 162,	165,	9,	12,	12,	12,SURF_ID='LINEFIRE' /
&VENT XB= 162,	165,	9,	9,	12,	13,SURF_ID='LINEFIRE' /
&VENT XB= 162,	162,	9,	12,	12,	13,SURF_ID='LINEFIRE' /
&VENT XB= 162,	165,	12,	15,	12,	12,SURF_ID='LINEFIRE' /
&VENT XB= 165,	168,	12,	15,	12,	12,SURF_ID='LINEFIRE' /
&VENT XB= 168,	171,	12,	15,	10,	10,SURF_ID='LINEFIRE' /
&VENT XB= 168,	171,	12,	12,	10,	11,SURF_ID='LINEFIRE' /
&VENT XB= 168,	168,	12,	15,	11,	12,SURF_ID='LINEFIRE' /
&VENT XB= 168,	168,	12,	15,	10,	11,SURF_ID='LINEFIRE' /
&VENT XB= 168,	171,	15,	18,	10,	10,SURF_ID='LINEFIRE' /
&VENT XB= 168,	168,	15,	18,	11,	12,SURF_ID='LINEFIRE' /
&VENT XB= 168,	168,	15,	18,	10,	11,SURF_ID='LINEFIRE' /
&VENT XB= 168,	171,	18,	18,	10,	11,SURF_ID='LINEFIRE' /
&VENT XB= 171,	174,	15,	18,	10,	10,SURF_ID='LINEFIRE' /
&VENT XB= 171,	174,	18,	18,	10,	11,SURF_ID='LINEFIRE' /
&VENT XB= 174,	177,	15,	18,	10,	10,SURF_ID='LINEFIRE' /
&VENT XB= 174,	177,	18,	18,	10,	11,SURF_ID='LINEFIRE' /
&VENT XB= 174,	177,	18,	21,	11,	11,SURF_ID='LINEFIRE' /
&VENT XB= 174,	177,	21,	21,	11,	12,SURF_ID='LINEFIRE' /
&VENT XB= 177,	180,	18,	21,	11,	11,SURF_ID='LINEFIRE' /
&VENT XB= 177,	180,	21,	21,	11,	12,SURF_ID='LINEFIRE' /
&VENT XB= 177,	180,	21,	24,	12,	12,SURF_ID='LINEFIRE' /
&VENT XB= 177,	180,	24,	24,	13,	14,SURF_ID='LINEFIRE' /
&VENT XB= 177,	180,	24,	24,	12,	13,SURF_ID='LINEFIRE' /
&VENT XB= 180,	183,	21,	24,	12,	12,SURF_ID='LINEFIRE' /
&VENT XB= 180,	183,	24,	24,	13,	14,SURF_ID='LINEFIRE' /
&VENT XB= 180,	183,	24,	24,	12,	13,SURF_ID='LINEFIRE' /
&VENT XB= 180,	183,	24,	27,	14,	14,SURF_ID='LINEFIRE' /
&VENT XB= 180,	183,	27,	27,	14,	15,SURF_ID='LINEFIRE' /
&VENT XB= 180,	183,	27,	30,	15,	15,SURF_ID='LINEFIRE' /
&VENT XB= 180,	183,	30,	30,	15,	16,SURF_ID='LINEFIRE' /
&VENT XB= 183,	186,	27,	30,	14,	14,SURF_ID='LINEFIRE' /
&VENT XB= 183,	183,	27,	30,	14,	15,SURF_ID='LINEFIRE' /
&VENT XB= 183,	186,	30,	30,	15,	16,SURF_ID='LINEFIRE' /
&VENT XB= 183,	186,	30,	30,	14,	15,SURF_ID='LINEFIRE' /
&VENT XB= 183,	186,	30,	33,	16,	16,SURF_ID='LINEFIRE' /
&VENT XB= 183,	186,	33,	33,	16,	17,SURF_ID='LINEFIRE' /
&VENT XB= 183,	186,	33,	36,	17,	17,SURF_ID='LINEFIRE' /
&VENT XB= 183,	183,	33,	36,	17,	18,SURF_ID='LINEFIRE' /
&VENT XB= 183,	186,	36,	36,	17,	18,SURF_ID='LINEFIRE' /
&VENT XB= 186,	189,	33,	36,	17,	17,SURF_ID='LINEFIRE' /
&VENT XB= 186,	189,	36,	36,	17,	18,SURF_ID='LINEFIRE' /
&VENT XB= 186,	189,	36,	39,	18,	18,SURF_ID='LINEFIRE' /
&VENT XB= 186,	189,	39,	39,	18,	19,SURF_ID='LINEFIRE' /
&VENT XB= 186,	189,	39,	42,	19,	19,SURF_ID='LINEFIRE' /
&VENT XB= 186,	189,	42,	42,	19,	20,SURF_ID='LINEFIRE' /
&VENT XB= 186,	189,	42,	45,	20,	20,SURF_ID='LINEFIRE' /
&VENT XB= 186,	189,	45,	48,	20,	20,SURF_ID='LINEFIRE' /


! Boundary conditions
! 13 Anderson Fire Behavior Fuel Models
&SURF ID='A01' RGB=255,254,212 VEG_LSET_FUEL_INDEX= 1 /
&SURF ID='A02' RGB=255,253,102 VEG_LSET_FUEL_INDEX= 2, VEG_LSET_HT=1.00 /
&SURF ID='A03' RGB=236,212, 99 VEG_LSET_FUEL_INDEX= 3 /
&SURF ID='A04' RGB=254,193,119 VEG_LSET_FUEL_INDEX= 4 /
&SURF ID='A05' RGB=249,197, 92 VEG_LSET_FUEL_INDEX= 5 /
&SURF ID='A06' RGB=217,196,152 VEG_LSET_FUEL_INDEX= 6 /
&SURF ID='A07' RGB=170,155,127 VEG_LSET_FUEL_INDEX= 7 /
&SURF ID='A08' RGB=229,253,214 VEG_LSET_FUEL_INDEX= 8 /
&SURF ID='A09' RGB=162,191, 90 VEG_LSET_FUEL_INDEX= 9 /
&SURF ID='A10' RGB=114,154, 85 VEG_LSET_FUEL_INDEX=10 /
&SURF ID='A11' RGB=235,212,253 VEG_LSET_FUEL_INDEX=11 /
&SURF ID='A12' RGB=163,177,243 VEG_LSET_FUEL_INDEX=12 /
&SURF ID='A13' RGB=  0,  0,  0 VEG_LSET_FUEL_INDEX=13 /
&SURF ID='Urban' RGB=186,119, 80 /
&SURF ID='Snow-Ice' RGB=234,234,234 /
&SURF ID='Agriculture' RGB=253,242,242 /
&SURF ID='Water' RGB=137,183,221 /
&SURF ID='Barren' RGB=133,153,156 /
&SURF ID='NA' RGB=255,255,255 /




&OBST XB=  0,	3,	0,	3,	0,	63,  SURF_ID='A02'/
&OBST XB=  3,	6,	0,	3,	0,	63,  SURF_ID='A02'/
&OBST XB=  6,	9,	0,	3,	0,	63,  SURF_ID='A02'/
&OBST XB=  9,	12,	0,	3,	0,	62,  SURF_ID='A02'/
&OBST XB=  12,	15,	0,	3,	0,	62,  SURF_ID='A02'/
&OBST XB=  15,	18,	0,	3,	0,	61,  SURF_ID='A02'/
&OBST XB=  18,	21,	0,	3,	0,	61,  SURF_ID='A02'/
&OBST XB=  21,	24,	0,	3,	0,	60,  SURF_ID='A02'/
&OBST XB=  24,	27,	0,	3,	0,	58,  SURF_ID='A02'/
&OBST XB=  27,	30,	0,	3,	0,	57,  SURF_ID='A02'/
&OBST XB=  30,	33,	0,	3,	0,	56,  SURF_ID='A02'/
&OBST XB=  33,	36,	0,	3,	0,	56,  SURF_ID='A02'/
&OBST XB=  36,	39,	0,	3,	0,	54,  SURF_ID='A02'/
&OBST XB=  39,	42,	0,	3,	0,	53,  SURF_ID='A02'/
&OBST XB=  42,	45,	0,	3,	0,	52,  SURF_ID='A02'/
&OBST XB=  45,	48,	0,	3,	0,	52,  SURF_ID='A02'/
&OBST XB=  48,	51,	0,	3,	0,	51,  SURF_ID='A02'/
&OBST XB=  51,	54,	0,	3,	0,	50,  SURF_ID='A02'/
&OBST XB=  54,	57,	0,	3,	0,	48,  SURF_ID='A02'/
&OBST XB=  57,	60,	0,	3,	0,	47,  SURF_ID='A02'/
&OBST XB=  60,	63,	0,	3,	0,	45,  SURF_ID='A02'/
&OBST XB=  63,	66,	0,	3,	0,	44,  SURF_ID='A02'/
&OBST XB=  66,	69,	0,	3,	0,	44,  SURF_ID='A02'/
&OBST XB=  69,	72,	0,	3,	0,	42,  SURF_ID='A02'/
&OBST XB=  72,	75,	0,	3,	0,	42,  SURF_ID='A02'/
&OBST XB=  75,	78,	0,	3,	0,	40,  SURF_ID='A02'/
&OBST XB=  78,	81,	0,	3,	0,	40,  SURF_ID='A02'/
&OBST XB=  81,	84,	0,	3,	0,	38,  SURF_ID='A02'/
&OBST XB=  84,	87,	0,	3,	0,	36,  SURF_ID='A02'/
&OBST XB=  87,	90,	0,	3,	0,	35,  SURF_ID='A02'/
&OBST XB=  90,	93,	0,	3,	0,	34,  SURF_ID='A02'/
&OBST XB=  93,	96,	0,	3,	0,	33,  SURF_ID='A02'/
&OBST XB=  96,	99,	0,	3,	0,	31,  SURF_ID='A02'/
&OBST XB=  99,	102,	0,	3,	0,	30,  SURF_ID='A02'/
&OBST XB=  102,	105,	0,	3,	0,	29,  SURF_ID='A02'/
&OBST XB=  105,	108,	0,	3,	0,	28,  SURF_ID='A02'/
&OBST XB=  108,	111,	0,	3,	0,	27,  SURF_ID='A02'/
&OBST XB=  111,	114,	0,	3,	0,	25,  SURF_ID='A02'/
&OBST XB=  114,	117,	0,	3,	0,	24,  SURF_ID='A02'/
&OBST XB=  117,	120,	0,	3,	0,	23,  SURF_ID='A02'/
&OBST XB=  120,	123,	0,	3,	0,	22,  SURF_ID='A02'/
&OBST XB=  123,	126,	0,	3,	0,	22,  SURF_ID='A02'/
&OBST XB=  126,	129,	0,	3,	0,	21,  SURF_ID='A02'/
&OBST XB=  129,	132,	0,	3,	0,	20,  SURF_ID='A02'/
&OBST XB=  132,	135,	0,	3,	0,	19,  SURF_ID='A02'/
&OBST XB=  135,	138,	0,	3,	0,	19,  SURF_ID='A02'/
&OBST XB=  138,	141,	0,	3,	0,	18,  SURF_ID='A02'/
&OBST XB=  141,	144,	0,	3,	0,	18,  SURF_ID='A02'/
&OBST XB=  144,	147,	0,	3,	0,	17,  SURF_ID='A02'/
&OBST XB=  147,	150,	0,	3,	0,	16,  SURF_ID='A02'/
&OBST XB=  150,	153,	0,	3,	0,	16,  SURF_ID='A02'/
&OBST XB=  153,	156,	0,	3,	0,	15,  SURF_ID='A02'/
&OBST XB=  156,	159,	0,	3,	0,	14,  SURF_ID='A02'/
&OBST XB=  159,	162,	0,	3,	0,	14,  SURF_ID='A02'/
&OBST XB=  162,	165,	0,	3,	0,	13,  SURF_ID='A02'/
&OBST XB=  165,	168,	0,	3,	0,	12,  SURF_ID='A02'/
&OBST XB=  168,	171,	0,	3,	0,	12,  SURF_ID='A02'/
&OBST XB=  171,	174,	0,	3,	0,	11,  SURF_ID='A02'/
&OBST XB=  174,	177,	0,	3,	0,	11,  SURF_ID='A02'/
&OBST XB=  177,	180,	0,	3,	0,	9,  SURF_ID='A02'/
&OBST XB=  180,	183,	0,	3,	0,	9,  SURF_ID='A02'/
&OBST XB=  183,	186,	0,	3,	0,	8,  SURF_ID='A02'/
&OBST XB=  186,	189,	0,	3,	0,	8,  SURF_ID='A02'/
&OBST XB=  189,	192,	0,	3,	0,	8,  SURF_ID='A02'/
&OBST XB=  0,	3,	3,	6,	0,	63,  SURF_ID='A02'/
&OBST XB=  3,	6,	3,	6,	0,	63,  SURF_ID='A02'/
&OBST XB=  6,	9,	3,	6,	0,	63,  SURF_ID='A02'/
&OBST XB=  9,	12,	3,	6,	0,	62,  SURF_ID='A02'/
&OBST XB=  12,	15,	3,	6,	0,	62,  SURF_ID='A02'/
&OBST XB=  15,	18,	3,	6,	0,	61,  SURF_ID='A02'/
&OBST XB=  18,	21,	3,	6,	0,	60,  SURF_ID='A02'/
&OBST XB=  21,	24,	3,	6,	0,	59,  SURF_ID='A02'/
&OBST XB=  24,	27,	3,	6,	0,	58,  SURF_ID='A02'/
&OBST XB=  27,	30,	3,	6,	0,	57,  SURF_ID='A02'/
&OBST XB=  30,	33,	3,	6,	0,	56,  SURF_ID='A02'/
&OBST XB=  33,	36,	3,	6,	0,	55,  SURF_ID='A02'/
&OBST XB=  36,	39,	3,	6,	0,	54,  SURF_ID='A02'/
&OBST XB=  39,	42,	3,	6,	0,	54,  SURF_ID='A02'/
&OBST XB=  42,	45,	3,	6,	0,	53,  SURF_ID='A02'/
&OBST XB=  45,	48,	3,	6,	0,	52,  SURF_ID='A02'/
&OBST XB=  48,	51,	3,	6,	0,	51,  SURF_ID='A02'/
&OBST XB=  51,	54,	3,	6,	0,	50,  SURF_ID='A02'/
&OBST XB=  54,	57,	3,	6,	0,	49,  SURF_ID='A02'/
&OBST XB=  57,	60,	3,	6,	0,	47,  SURF_ID='A02'/
&OBST XB=  60,	63,	3,	6,	0,	46,  SURF_ID='A02'/
&OBST XB=  63,	66,	3,	6,	0,	45,  SURF_ID='A02'/
&OBST XB=  66,	69,	3,	6,	0,	44,  SURF_ID='A02'/
&OBST XB=  69,	72,	3,	6,	0,	43,  SURF_ID='A02'/
&OBST XB=  72,	75,	3,	6,	0,	41,  SURF_ID='A02'/
&OBST XB=  75,	78,	3,	6,	0,	41,  SURF_ID='A02'/
&OBST XB=  78,	81,	3,	6,	0,	39,  SURF_ID='A02'/
&OBST XB=  81,	84,	3,	6,	0,	38,  SURF_ID='A02'/
&OBST XB=  84,	87,	3,	6,	0,	36,  SURF_ID='A02'/
&OBST XB=  87,	90,	3,	6,	0,	34,  SURF_ID='A02'/
&OBST XB=  90,	93,	3,	6,	0,	33,  SURF_ID='A02'/
&OBST XB=  93,	96,	3,	6,	0,	31,  SURF_ID='A02'/
&OBST XB=  96,	99,	3,	6,	0,	30,  SURF_ID='A02'/
&OBST XB=  99,	102,	3,	6,	0,	29,  SURF_ID='A02'/
&OBST XB=  102,	105,	3,	6,	0,	28,  SURF_ID='A02'/
&OBST XB=  105,	108,	3,	6,	0,	27,  SURF_ID='A02'/
&OBST XB=  108,	111,	3,	6,	0,	26,  SURF_ID='A02'/
&OBST XB=  111,	114,	3,	6,	0,	24,  SURF_ID='A02'/
&OBST XB=  114,	117,	3,	6,	0,	23,  SURF_ID='A02'/
&OBST XB=  117,	120,	3,	6,	0,	22,  SURF_ID='A02'/
&OBST XB=  120,	123,	3,	6,	0,	22,  SURF_ID='A02'/
&OBST XB=  123,	126,	3,	6,	0,	21,  SURF_ID='A02'/
&OBST XB=  126,	129,	3,	6,	0,	20,  SURF_ID='A02'/
&OBST XB=  129,	132,	3,	6,	0,	20,  SURF_ID='A02'/
&OBST XB=  132,	135,	3,	6,	0,	19,  SURF_ID='A02'/
&OBST XB=  135,	138,	3,	6,	0,	18,  SURF_ID='A02'/
&OBST XB=  138,	141,	3,	6,	0,	18,  SURF_ID='A02'/
&OBST XB=  141,	144,	3,	6,	0,	17,  SURF_ID='A02'/
&OBST XB=  144,	147,	3,	6,	0,	17,  SURF_ID='A02'/
&OBST XB=  147,	150,	3,	6,	0,	16,  SURF_ID='A02'/
&OBST XB=  150,	153,	3,	6,	0,	15,  SURF_ID='A02'/
&OBST XB=  153,	156,	3,	6,	0,	15,  SURF_ID='A02'/
&OBST XB=  156,	159,	3,	6,	0,	14,  SURF_ID='A02'/
&OBST XB=  159,	162,	3,	6,	0,	14,  SURF_ID='A02'/
&OBST XB=  162,	165,	3,	6,	0,	13,  SURF_ID='A02'/
&OBST XB=  165,	168,	3,	6,	0,	12,  SURF_ID='A02'/
&OBST XB=  168,	171,	3,	6,	0,	12,  SURF_ID='A02'/
&OBST XB=  171,	174,	3,	6,	0,	11,  SURF_ID='A02'/
&OBST XB=  174,	177,	3,	6,	0,	10,  SURF_ID='A02'/
&OBST XB=  177,	180,	3,	6,	0,	8,  SURF_ID='A02'/
&OBST XB=  180,	183,	3,	6,	0,	8,  SURF_ID='A02'/
&OBST XB=  183,	186,	3,	6,	0,	8,  SURF_ID='A02'/
&OBST XB=  186,	189,	3,	6,	0,	7,  SURF_ID='A02'/
&OBST XB=  189,	192,	3,	6,	0,	7,  SURF_ID='A02'/
&OBST XB=  0,	3,	6,	9,	0,	64,  SURF_ID='A02'/
&OBST XB=  3,	6,	6,	9,	0,	63,  SURF_ID='A02'/
&OBST XB=  6,	9,	6,	9,	0,	63,  SURF_ID='A02'/
&OBST XB=  9,	12,	6,	9,	0,	63,  SURF_ID='A02'/
&OBST XB=  12,	15,	6,	9,	0,	62,  SURF_ID='A02'/
&OBST XB=  15,	18,	6,	9,	0,	61,  SURF_ID='A02'/
&OBST XB=  18,	21,	6,	9,	0,	60,  SURF_ID='A02'/
&OBST XB=  21,	24,	6,	9,	0,	60,  SURF_ID='A02'/
&OBST XB=  24,	27,	6,	9,	0,	58,  SURF_ID='A02'/
&OBST XB=  27,	30,	6,	9,	0,	57,  SURF_ID='A02'/
&OBST XB=  30,	33,	6,	9,	0,	56,  SURF_ID='A02'/
&OBST XB=  33,	36,	6,	9,	0,	55,  SURF_ID='A02'/
&OBST XB=  36,	39,	6,	9,	0,	54,  SURF_ID='A02'/
&OBST XB=  39,	42,	6,	9,	0,	54,  SURF_ID='A02'/
&OBST XB=  42,	45,	6,	9,	0,	53,  SURF_ID='A02'/
&OBST XB=  45,	48,	6,	9,	0,	52,  SURF_ID='A02'/
&OBST XB=  48,	51,	6,	9,	0,	51,  SURF_ID='A02'/
&OBST XB=  51,	54,	6,	9,	0,	51,  SURF_ID='A02'/
&OBST XB=  54,	57,	6,	9,	0,	50,  SURF_ID='A02'/
&OBST XB=  57,	60,	6,	9,	0,	48,  SURF_ID='A02'/
&OBST XB=  60,	63,	6,	9,	0,	47,  SURF_ID='A02'/
&OBST XB=  63,	66,	6,	9,	0,	45,  SURF_ID='A02'/
&OBST XB=  66,	69,	6,	9,	0,	44,  SURF_ID='A02'/
&OBST XB=  69,	72,	6,	9,	0,	43,  SURF_ID='A02'/
&OBST XB=  72,	75,	6,	9,	0,	42,  SURF_ID='A02'/
&OBST XB=  75,	78,	6,	9,	0,	41,  SURF_ID='A02'/
&OBST XB=  78,	81,	6,	9,	0,	40,  SURF_ID='A02'/
&OBST XB=  81,	84,	6,	9,	0,	38,  SURF_ID='A02'/
&OBST XB=  84,	87,	6,	9,	0,	36,  SURF_ID='A02'/
&OBST XB=  87,	90,	6,	9,	0,	35,  SURF_ID='A02'/
&OBST XB=  90,	93,	6,	9,	0,	33,  SURF_ID='A02'/
&OBST XB=  93,	96,	6,	9,	0,	31,  SURF_ID='A02'/
&OBST XB=  96,	99,	6,	9,	0,	30,  SURF_ID='A02'/
&OBST XB=  99,	102,	6,	9,	0,	28,  SURF_ID='A02'/
&OBST XB=  102,	105,	6,	9,	0,	27,  SURF_ID='A02'/
&OBST XB=  105,	108,	6,	9,	0,	26,  SURF_ID='A02'/
&OBST XB=  108,	111,	6,	9,	0,	24,  SURF_ID='A02'/
&OBST XB=  111,	114,	6,	9,	0,	23,  SURF_ID='A02'/
&OBST XB=  114,	117,	6,	9,	0,	22,  SURF_ID='A02'/
&OBST XB=  117,	120,	6,	9,	0,	21,  SURF_ID='A02'/
&OBST XB=  120,	123,	6,	9,	0,	20,  SURF_ID='A02'/
&OBST XB=  123,	126,	6,	9,	0,	20,  SURF_ID='A02'/
&OBST XB=  126,	129,	6,	9,	0,	19,  SURF_ID='A02'/
&OBST XB=  129,	132,	6,	9,	0,	19,  SURF_ID='A02'/
&OBST XB=  132,	135,	6,	9,	0,	18,  SURF_ID='A02'/
&OBST XB=  135,	138,	6,	9,	0,	18,  SURF_ID='A02'/
&OBST XB=  138,	141,	6,	9,	0,	17,  SURF_ID='A02'/
&OBST XB=  141,	144,	6,	9,	0,	17,  SURF_ID='A02'/
&OBST XB=  144,	147,	6,	9,	0,	16,  SURF_ID='A02'/
&OBST XB=  147,	150,	6,	9,	0,	16,  SURF_ID='A02'/
&OBST XB=  150,	153,	6,	9,	0,	15,  SURF_ID='A02'/
&OBST XB=  153,	156,	6,	9,	0,	15,  SURF_ID='A02'/
&OBST XB=  156,	159,	6,	9,	0,	14,  SURF_ID='A02'/
&OBST XB=  159,	162,	6,	9,	0,	14,  SURF_ID='A02'/
&OBST XB=  162,	165,	6,	9,	0,	13,  SURF_ID='A02'/
&OBST XB=  165,	168,	6,	9,	0,	12,  SURF_ID='A02'/
&OBST XB=  168,	171,	6,	9,	0,	11,  SURF_ID='A02'/
&OBST XB=  171,	174,	6,	9,	0,	11,  SURF_ID='A02'/
&OBST XB=  174,	177,	6,	9,	0,	9,  SURF_ID='A02'/
&OBST XB=  177,	180,	6,	9,	0,	8,  SURF_ID='A02'/
&OBST XB=  180,	183,	6,	9,	0,	8,  SURF_ID='A02'/
&OBST XB=  183,	186,	6,	9,	0,	9,  SURF_ID='A02'/
&OBST XB=  186,	189,	6,	9,	0,	8,  SURF_ID='A02'/
&OBST XB=  189,	192,	6,	9,	0,	7,  SURF_ID='A02'/
&OBST XB=  0,	3,	9,	12,	0,	64,  SURF_ID='A02'/
&OBST XB=  0,	3,	9,	12,	66,	67,  SURF_ID='Urban'/
&OBST XB=  0,	3,	9,	12,	65,	66,  SURF_ID='Urban'/
&OBST XB=  0,	3,	9,	12,	64,	65,  SURF_ID='Urban'/
&OBST XB=  3,	6,	9,	12,	0,	64,  SURF_ID='A02'/
&OBST XB=  6,	9,	9,	12,	0,	64,  SURF_ID='A02'/
&OBST XB=  9,	12,	9,	12,	0,	63,  SURF_ID='A02'/
&OBST XB=  12,	15,	9,	12,	0,	62,  SURF_ID='A02'/
&OBST XB=  15,	18,	9,	12,	0,	61,  SURF_ID='A02'/
&OBST XB=  18,	21,	9,	12,	0,	60,  SURF_ID='A02'/
&OBST XB=  21,	24,	9,	12,	0,	59,  SURF_ID='A02'/
&OBST XB=  24,	27,	9,	12,	0,	59,  SURF_ID='A02'/
&OBST XB=  27,	30,	9,	12,	0,	58,  SURF_ID='A02'/
&OBST XB=  30,	33,	9,	12,	0,	56,  SURF_ID='A02'/
&OBST XB=  33,	36,	9,	12,	0,	55,  SURF_ID='A02'/
&OBST XB=  36,	39,	9,	12,	0,	54,  SURF_ID='A02'/
&OBST XB=  39,	42,	9,	12,	0,	54,  SURF_ID='A02'/
&OBST XB=  42,	45,	9,	12,	0,	53,  SURF_ID='A02'/
&OBST XB=  45,	48,	9,	12,	0,	53,  SURF_ID='A02'/
&OBST XB=  48,	51,	9,	12,	0,	52,  SURF_ID='A02'/
&OBST XB=  51,	54,	9,	12,	0,	51,  SURF_ID='A02'/
&OBST XB=  54,	57,	9,	12,	0,	51,  SURF_ID='A02'/
&OBST XB=  57,	60,	9,	12,	0,	49,  SURF_ID='A02'/
&OBST XB=  60,	63,	9,	12,	0,	48,  SURF_ID='A02'/
&OBST XB=  63,	66,	9,	12,	0,	46,  SURF_ID='A02'/
&OBST XB=  66,	69,	9,	12,	0,	45,  SURF_ID='A02'/
&OBST XB=  69,	72,	9,	12,	0,	44,  SURF_ID='A02'/
&OBST XB=  72,	75,	9,	12,	0,	43,  SURF_ID='A02'/
&OBST XB=  75,	78,	9,	12,	0,	41,  SURF_ID='A02'/
&OBST XB=  78,	81,	9,	12,	0,	40,  SURF_ID='A02'/
&OBST XB=  81,	84,	9,	12,	0,	38,  SURF_ID='A02'/
&OBST XB=  84,	87,	9,	12,	0,	37,  SURF_ID='A02'/
&OBST XB=  87,	90,	9,	12,	0,	35,  SURF_ID='A02'/
&OBST XB=  90,	93,	9,	12,	0,	33,  SURF_ID='A02'/
&OBST XB=  93,	96,	9,	12,	0,	31,  SURF_ID='A02'/
&OBST XB=  96,	99,	9,	12,	0,	30,  SURF_ID='A02'/
&OBST XB=  99,	102,	9,	12,	0,	28,  SURF_ID='A02'/
&OBST XB=  102,	105,	9,	12,	0,	25,  SURF_ID='A02'/
&OBST XB=  105,	108,	9,	12,	0,	24,  SURF_ID='A02'/
&OBST XB=  108,	111,	9,	12,	0,	22,  SURF_ID='A02'/
&OBST XB=  111,	114,	9,	12,	0,	22,  SURF_ID='A02'/
&OBST XB=  114,	117,	9,	12,	0,	21,  SURF_ID='A02'/
&OBST XB=  117,	120,	9,	12,	0,	20,  SURF_ID='A02'/
&OBST XB=  120,	123,	9,	12,	0,	19,  SURF_ID='A02'/
&OBST XB=  123,	126,	9,	12,	0,	19,  SURF_ID='A02'/
&OBST XB=  126,	129,	9,	12,	0,	18,  SURF_ID='A02'/
&OBST XB=  129,	132,	9,	12,	0,	18,  SURF_ID='A02'/
&OBST XB=  132,	135,	9,	12,	0,	17,  SURF_ID='A02'/
&OBST XB=  135,	138,	9,	12,	0,	17,  SURF_ID='A02'/
&OBST XB=  138,	141,	9,	12,	0,	16,  SURF_ID='A02'/
&OBST XB=  141,	144,	9,	12,	0,	16,  SURF_ID='A02'/
&OBST XB=  144,	147,	9,	12,	0,	16,  SURF_ID='A02'/
&OBST XB=  147,	150,	9,	12,	0,	15,  SURF_ID='A02'/
&OBST XB=  150,	153,	9,	12,	0,	14,  SURF_ID='A02'/
&OBST XB=  153,	156,	9,	12,	0,	14,  SURF_ID='A02'/
&OBST XB=  156,	159,	9,	12,	0,	13,  SURF_ID='A02'/
&OBST XB=  159,	162,	9,	12,	0,	13,  SURF_ID='A02'/
&OBST XB=  162,	165,	9,	12,	0,	12,  SURF_ID='A02'/
&OBST XB=  165,	168,	9,	12,	0,	12,  SURF_ID='A02'/
&OBST XB=  168,	171,	9,	12,	0,	11,  SURF_ID='A02'/
&OBST XB=  171,	174,	9,	12,	0,	10,  SURF_ID='A02'/
&OBST XB=  174,	177,	9,	12,	0,	8,  SURF_ID='A02'/
&OBST XB=  177,	180,	9,	12,	0,	8,  SURF_ID='A02'/
&OBST XB=  180,	183,	9,	12,	0,	9,  SURF_ID='A02'/
&OBST XB=  183,	186,	9,	12,	0,	9,  SURF_ID='A02'/
&OBST XB=  186,	189,	9,	12,	0,	9,  SURF_ID='A02'/
&OBST XB=  189,	192,	9,	12,	0,	8,  SURF_ID='A02'/
&OBST XB=  0,	3,	12,	15,	0,	64,  SURF_ID='A02'/
&OBST XB=  0,	3,	12,	15,	66,	67,  SURF_ID='Urban'/
&OBST XB=  0,	3,	12,	15,	65,	66,  SURF_ID='Urban'/
&OBST XB=  0,	3,	12,	15,	64,	65,  SURF_ID='Urban'/
&OBST XB=  0,	3,	12,	15,	67,	68,  SURF_ID='Urban'/
&OBST XB=  0,	3,	12,	15,	66,	67,  SURF_ID='Urban'/
&OBST XB=  0,	3,	12,	15,	65,	66,  SURF_ID='Urban'/
&OBST XB=  0,	3,	12,	15,	64,	65,  SURF_ID='Urban'/
&OBST XB=  3,	6,	12,	15,	0,	64,  SURF_ID='A02'/
&OBST XB=  3,	6,	12,	15,	67,	68,  SURF_ID='Urban'/
&OBST XB=  3,	6,	12,	15,	66,	67,  SURF_ID='Urban'/
&OBST XB=  3,	6,	12,	15,	65,	66,  SURF_ID='Urban'/
&OBST XB=  3,	6,	12,	15,	64,	65,  SURF_ID='Urban'/
&OBST XB=  6,	9,	12,	15,	0,	64,  SURF_ID='A02'/
&OBST XB=  6,	9,	12,	15,	66,	67,  SURF_ID='Urban'/
&OBST XB=  6,	9,	12,	15,	65,	66,  SURF_ID='Urban'/
&OBST XB=  6,	9,	12,	15,	64,	65,  SURF_ID='Urban'/
&OBST XB=  6,	9,	12,	15,	67,	68,  SURF_ID='Urban'/
&OBST XB=  6,	9,	12,	15,	66,	67,  SURF_ID='Urban'/
&OBST XB=  6,	9,	12,	15,	65,	66,  SURF_ID='Urban'/
&OBST XB=  6,	9,	12,	15,	64,	65,  SURF_ID='Urban'/
&OBST XB=  9,	12,	12,	15,	0,	63,  SURF_ID='A02'/
&OBST XB=  9,	12,	12,	15,	66,	67,  SURF_ID='Urban'/
&OBST XB=  9,	12,	12,	15,	65,	66,  SURF_ID='Urban'/
&OBST XB=  9,	12,	12,	15,	64,	65,  SURF_ID='Urban'/
&OBST XB=  9,	12,	12,	15,	63,	64,  SURF_ID='Urban'/
&OBST XB=  9,	12,	12,	15,	67,	68,  SURF_ID='Urban'/
&OBST XB=  9,	12,	12,	15,	66,	67,  SURF_ID='Urban'/
&OBST XB=  9,	12,	12,	15,	65,	66,  SURF_ID='Urban'/
&OBST XB=  9,	12,	12,	15,	64,	65,  SURF_ID='Urban'/
&OBST XB=  9,	12,	12,	15,	63,	64,  SURF_ID='Urban'/
&OBST XB=  12,	15,	12,	15,	0,	63,  SURF_ID='A02'/
&OBST XB=  15,	18,	12,	15,	0,	62,  SURF_ID='A02'/
&OBST XB=  18,	21,	12,	15,	0,	61,  SURF_ID='A02'/
&OBST XB=  21,	24,	12,	15,	0,	60,  SURF_ID='A02'/
&OBST XB=  24,	27,	12,	15,	0,	58,  SURF_ID='A02'/
&OBST XB=  27,	30,	12,	15,	0,	58,  SURF_ID='A02'/
&OBST XB=  30,	33,	12,	15,	0,	57,  SURF_ID='A02'/
&OBST XB=  33,	36,	12,	15,	0,	56,  SURF_ID='A02'/
&OBST XB=  36,	39,	12,	15,	0,	55,  SURF_ID='A02'/
&OBST XB=  39,	42,	12,	15,	0,	54,  SURF_ID='A02'/
&OBST XB=  42,	45,	12,	15,	0,	54,  SURF_ID='A02'/
&OBST XB=  45,	48,	12,	15,	0,	53,  SURF_ID='A02'/
&OBST XB=  48,	51,	12,	15,	0,	52,  SURF_ID='A02'/
&OBST XB=  51,	54,	12,	15,	0,	52,  SURF_ID='A02'/
&OBST XB=  54,	57,	12,	15,	0,	51,  SURF_ID='A02'/
&OBST XB=  57,	60,	12,	15,	0,	50,  SURF_ID='A02'/
&OBST XB=  60,	63,	12,	15,	0,	48,  SURF_ID='A02'/
&OBST XB=  63,	66,	12,	15,	0,	47,  SURF_ID='A02'/
&OBST XB=  66,	69,	12,	15,	0,	45,  SURF_ID='A02'/
&OBST XB=  69,	72,	12,	15,	0,	44,  SURF_ID='A02'/
&OBST XB=  72,	75,	12,	15,	0,	43,  SURF_ID='A02'/
&OBST XB=  75,	78,	12,	15,	0,	41,  SURF_ID='A02'/
&OBST XB=  78,	81,	12,	15,	0,	40,  SURF_ID='A02'/
&OBST XB=  81,	84,	12,	15,	0,	38,  SURF_ID='A02'/
&OBST XB=  84,	87,	12,	15,	0,	37,  SURF_ID='A02'/
&OBST XB=  87,	90,	12,	15,	0,	35,  SURF_ID='A02'/
&OBST XB=  90,	93,	12,	15,	0,	33,  SURF_ID='A02'/
&OBST XB=  93,	96,	12,	15,	0,	32,  SURF_ID='A02'/
&OBST XB=  96,	99,	12,	15,	0,	30,  SURF_ID='A02'/
&OBST XB=  99,	102,	12,	15,	0,	28,  SURF_ID='A02'/
&OBST XB=  102,	105,	12,	15,	0,	26,  SURF_ID='A02'/
&OBST XB=  105,	108,	12,	15,	0,	24,  SURF_ID='A02'/
&OBST XB=  108,	111,	12,	15,	0,	22,  SURF_ID='A02'/
&OBST XB=  111,	114,	12,	15,	0,	20,  SURF_ID='A02'/
&OBST XB=  114,	117,	12,	15,	0,	20,  SURF_ID='A02'/
&OBST XB=  117,	120,	12,	15,	0,	19,  SURF_ID='A02'/
&OBST XB=  120,	123,	12,	15,	0,	18,  SURF_ID='A02'/
&OBST XB=  123,	126,	12,	15,	0,	18,  SURF_ID='A02'/
&OBST XB=  126,	129,	12,	15,	0,	17,  SURF_ID='A02'/
&OBST XB=  129,	132,	12,	15,	0,	16,  SURF_ID='A02'/
&OBST XB=  132,	135,	12,	15,	0,	16,  SURF_ID='A02'/
&OBST XB=  135,	138,	12,	15,	0,	16,  SURF_ID='A02'/
&OBST XB=  138,	141,	12,	15,	0,	16,  SURF_ID='A02'/
&OBST XB=  141,	144,	12,	15,	0,	15,  SURF_ID='A02'/
&OBST XB=  144,	147,	12,	15,	0,	15,  SURF_ID='A02'/
&OBST XB=  147,	150,	12,	15,	0,	14,  SURF_ID='A02'/
&OBST XB=  150,	153,	12,	15,	0,	13,  SURF_ID='A02'/
&OBST XB=  153,	156,	12,	15,	0,	12,  SURF_ID='A02'/
&OBST XB=  156,	159,	12,	15,	0,	12,  SURF_ID='A02'/
&OBST XB=  159,	162,	12,	15,	0,	12,  SURF_ID='A02'/
&OBST XB=  162,	165,	12,	15,	0,	12,  SURF_ID='A02'/
&OBST XB=  165,	168,	12,	15,	0,	12,  SURF_ID='A02'/
&OBST XB=  168,	171,	12,	15,	0,	10,  SURF_ID='A02'/
&OBST XB=  171,	174,	12,	15,	0,	9,  SURF_ID='A02'/
&OBST XB=  174,	177,	12,	15,	0,	9,  SURF_ID='A02'/
&OBST XB=  177,	180,	12,	15,	0,	9,  SURF_ID='A02'/
&OBST XB=  180,	183,	12,	15,	0,	10,  SURF_ID='A02'/
&OBST XB=  183,	186,	12,	15,	0,	10,  SURF_ID='A02'/
&OBST XB=  186,	189,	12,	15,	0,	10,  SURF_ID='A02'/
&OBST XB=  189,	192,	12,	15,	0,	10,  SURF_ID='A02'/
&OBST XB=  0,	3,	15,	18,	0,	64,  SURF_ID='A02'/
&OBST XB=  0,	3,	15,	18,	67,	68,  SURF_ID='Urban'/
&OBST XB=  0,	3,	15,	18,	66,	67,  SURF_ID='Urban'/
&OBST XB=  0,	3,	15,	18,	65,	66,  SURF_ID='Urban'/
&OBST XB=  0,	3,	15,	18,	64,	65,  SURF_ID='Urban'/
&OBST XB=  3,	6,	15,	18,	0,	64,  SURF_ID='A02'/
&OBST XB=  3,	6,	15,	18,	67,	68,  SURF_ID='Urban'/
&OBST XB=  3,	6,	15,	18,	66,	67,  SURF_ID='Urban'/
&OBST XB=  3,	6,	15,	18,	65,	66,  SURF_ID='Urban'/
&OBST XB=  3,	6,	15,	18,	64,	65,  SURF_ID='Urban'/
&OBST XB=  6,	9,	15,	18,	0,	64,  SURF_ID='A02'/
&OBST XB=  6,	9,	15,	18,	66,	67,  SURF_ID='Urban'/
&OBST XB=  6,	9,	15,	18,	65,	66,  SURF_ID='Urban'/
&OBST XB=  6,	9,	15,	18,	64,	65,  SURF_ID='Urban'/
&OBST XB=  6,	9,	15,	18,	67,	68,  SURF_ID='Urban'/
&OBST XB=  6,	9,	15,	18,	66,	67,  SURF_ID='Urban'/
&OBST XB=  6,	9,	15,	18,	65,	66,  SURF_ID='Urban'/
&OBST XB=  6,	9,	15,	18,	64,	65,  SURF_ID='Urban'/
&OBST XB=  9,	12,	15,	18,	0,	64,  SURF_ID='A02'/
&OBST XB=  9,	12,	15,	18,	66,	67,  SURF_ID='Urban'/
&OBST XB=  9,	12,	15,	18,	65,	66,  SURF_ID='Urban'/
&OBST XB=  9,	12,	15,	18,	64,	65,  SURF_ID='Urban'/
&OBST XB=  12,	15,	15,	18,	0,	63,  SURF_ID='A02'/
&OBST XB=  15,	18,	15,	18,	0,	63,  SURF_ID='A02'/
&OBST XB=  18,	21,	15,	18,	0,	61,  SURF_ID='A02'/
&OBST XB=  21,	24,	15,	18,	0,	60,  SURF_ID='A02'/
&OBST XB=  24,	27,	15,	18,	0,	58,  SURF_ID='A02'/
&OBST XB=  27,	30,	15,	18,	0,	58,  SURF_ID='A02'/
&OBST XB=  30,	33,	15,	18,	0,	57,  SURF_ID='A02'/
&OBST XB=  33,	36,	15,	18,	0,	56,  SURF_ID='A02'/
&OBST XB=  36,	39,	15,	18,	0,	55,  SURF_ID='A02'/
&OBST XB=  39,	42,	15,	18,	0,	54,  SURF_ID='A02'/
&OBST XB=  42,	45,	15,	18,	0,	54,  SURF_ID='A02'/
&OBST XB=  45,	48,	15,	18,	0,	53,  SURF_ID='A02'/
&OBST XB=  48,	51,	15,	18,	0,	53,  SURF_ID='A02'/
&OBST XB=  51,	54,	15,	18,	0,	52,  SURF_ID='A02'/
&OBST XB=  54,	57,	15,	18,	0,	52,  SURF_ID='A02'/
&OBST XB=  57,	60,	15,	18,	0,	50,  SURF_ID='A02'/
&OBST XB=  60,	63,	15,	18,	0,	49,  SURF_ID='A02'/
&OBST XB=  63,	66,	15,	18,	0,	47,  SURF_ID='A02'/
&OBST XB=  66,	69,	15,	18,	0,	46,  SURF_ID='A02'/
&OBST XB=  69,	72,	15,	18,	0,	44,  SURF_ID='A02'/
&OBST XB=  72,	75,	15,	18,	0,	43,  SURF_ID='A02'/
&OBST XB=  75,	78,	15,	18,	0,	42,  SURF_ID='A02'/
&OBST XB=  78,	81,	15,	18,	0,	40,  SURF_ID='A02'/
&OBST XB=  81,	84,	15,	18,	0,	39,  SURF_ID='A02'/
&OBST XB=  84,	87,	15,	18,	0,	37,  SURF_ID='A02'/
&OBST XB=  87,	90,	15,	18,	0,	36,  SURF_ID='A02'/
&OBST XB=  90,	93,	15,	18,	0,	34,  SURF_ID='A02'/
&OBST XB=  93,	96,	15,	18,	0,	32,  SURF_ID='A02'/
&OBST XB=  96,	99,	15,	18,	0,	30,  SURF_ID='A02'/
&OBST XB=  99,	102,	15,	18,	0,	29,  SURF_ID='A02'/
&OBST XB=  102,	105,	15,	18,	0,	27,  SURF_ID='A02'/
&OBST XB=  105,	108,	15,	18,	0,	25,  SURF_ID='A02'/
&OBST XB=  108,	111,	15,	18,	0,	23,  SURF_ID='A02'/
&OBST XB=  111,	114,	15,	18,	0,	21,  SURF_ID='A02'/
&OBST XB=  114,	117,	15,	18,	0,	20,  SURF_ID='A02'/
&OBST XB=  117,	120,	15,	18,	0,	19,  SURF_ID='A02'/
&OBST XB=  120,	123,	15,	18,	0,	18,  SURF_ID='A02'/
&OBST XB=  123,	126,	15,	18,	0,	17,  SURF_ID='A02'/
&OBST XB=  126,	129,	15,	18,	0,	17,  SURF_ID='A02'/
&OBST XB=  129,	132,	15,	18,	0,	16,  SURF_ID='A02'/
&OBST XB=  132,	135,	15,	18,	0,	15,  SURF_ID='A02'/
&OBST XB=  135,	138,	15,	18,	0,	15,  SURF_ID='A02'/
&OBST XB=  138,	141,	15,	18,	0,	15,  SURF_ID='A02'/
&OBST XB=  141,	144,	15,	18,	0,	15,  SURF_ID='A02'/
&OBST XB=  144,	147,	15,	18,	0,	14,  SURF_ID='A02'/
&OBST XB=  147,	150,	15,	18,	0,	14,  SURF_ID='A02'/
&OBST XB=  150,	153,	15,	18,	0,	13,  SURF_ID='A02'/
&OBST XB=  153,	156,	15,	18,	0,	11,  SURF_ID='A02'/
&OBST XB=  156,	159,	15,	18,	0,	11,  SURF_ID='A02'/
&OBST XB=  159,	162,	15,	18,	0,	11,  SURF_ID='A02'/
&OBST XB=  162,	165,	15,	18,	0,	12,  SURF_ID='A02'/
&OBST XB=  165,	168,	15,	18,	0,	12,  SURF_ID='A02'/
&OBST XB=  168,	171,	15,	18,	0,	10,  SURF_ID='A02'/
&OBST XB=  171,	174,	15,	18,	0,	10,  SURF_ID='A02'/
&OBST XB=  174,	177,	15,	18,	0,	10,  SURF_ID='A02'/
&OBST XB=  177,	180,	15,	18,	0,	10,  SURF_ID='A02'/
&OBST XB=  180,	183,	15,	18,	0,	10,  SURF_ID='A02'/
&OBST XB=  183,	186,	15,	18,	0,	10,  SURF_ID='A02'/
&OBST XB=  186,	189,	15,	18,	0,	10,  SURF_ID='A02'/
&OBST XB=  189,	192,	15,	18,	0,	10,  SURF_ID='A02'/
&OBST XB=  0,	3,	18,	21,	0,	63,  SURF_ID='A02'/
&OBST XB=  0,	3,	18,	21,	67,	68,  SURF_ID='Urban'/
&OBST XB=  0,	3,	18,	21,	66,	67,  SURF_ID='Urban'/
&OBST XB=  0,	3,	18,	21,	65,	66,  SURF_ID='Urban'/
&OBST XB=  0,	3,	18,	21,	64,	65,  SURF_ID='Urban'/
&OBST XB=  0,	3,	18,	21,	63,	64,  SURF_ID='Urban'/
&OBST XB=  3,	6,	18,	21,	0,	64,  SURF_ID='A02'/
&OBST XB=  3,	6,	18,	21,	66,	67,  SURF_ID='Urban'/
&OBST XB=  3,	6,	18,	21,	65,	66,  SURF_ID='Urban'/
&OBST XB=  3,	6,	18,	21,	64,	65,  SURF_ID='Urban'/
&OBST XB=  6,	9,	18,	21,	0,	64,  SURF_ID='A02'/
&OBST XB=  6,	9,	18,	21,	66,	67,  SURF_ID='Urban'/
&OBST XB=  6,	9,	18,	21,	65,	66,  SURF_ID='Urban'/
&OBST XB=  6,	9,	18,	21,	64,	65,  SURF_ID='Urban'/
&OBST XB=  9,	12,	18,	21,	0,	64,  SURF_ID='A02'/
&OBST XB=  9,	12,	18,	21,	65,	66,  SURF_ID='Urban'/
&OBST XB=  9,	12,	18,	21,	64,	65,  SURF_ID='Urban'/
&OBST XB=  9,	12,	18,	21,	66,	67,  SURF_ID='Urban'/